Running 00_get_fasta.R script
Input file:  experiments/example/input/organisms.txt 
Output file:  experiments/example/input/00_database_resources/00_database.fasta 
Making the database_resources_directory if it doesn't exist.
Reading organism IDs from the input file.
Rows: 1 Columns: 2
── Column specification ────────────────────────────────────────────────────────────────────────────────────
Delimiter: "\t"
chr (1): organism_type
dbl (1): organism_id

ℹ Use `spec()` to retrieve the full column specification for this data.
ℹ Specify the column types or set `show_col_types = FALSE` to quiet this message.
Downloading fasta files from the organism IDs.
Getting Proteome IDs cooresponding to organism IDsGetting Reference Proteomes 

Rows: 24966 Columns: 8
── Column specification ────────────────────────────────────────────────────────────────────────────────────
Delimiter: "\t"
chr (4): Proteome_ID, OSCODE, SUPERREGNUM, Species Name
dbl (4): Tax_ID, #(1), #(2), #(3)

ℹ Use `spec()` to retrieve the full column specification for this data.
ℹ Specify the column types or set `show_col_types = FALSE` to quiet this message.
Reference Proteomes Sucessfully Retrieved. 

Proteome IDs Sucessfully RetrievedFasta File for Proteome ID: UP000095541 sucessfully downloaded
Concatinating fasta files...Temporary directory deleted.
Done downloading fasta files from the organism IDs.
00_get_fasta.R script complete.
