Running 04_make_database_resources_readme.R script
Input file:  experiments/example/input/00_database_resources/02_protein_info.txt 
Output file:  experiments/example/input/00_database_resources/README.md 
Output file:  experiments/example/input/00_database_resources/README.html 
Rows: 4908 Columns: 13
── Column specification ────────────────────────────────────────────────────────────────────────────────────
Delimiter: "\t"
chr (12): protein_id, organism_name, sequence, organism_type, domain, kingdo...
dbl  (1): organism_id

ℹ Use `spec()` to retrieve the full column specification for this data.
ℹ Specify the column types or set `show_col_types = FALSE` to quiet this message.
Writing README.md to  experiments/example/input/00_database_resources/README.md 
Converting README.md to HTML
[1] TRUE


processing file: /var/folders/9l/096ht_8x0g1f922jz0wqpcqr0000gn/T/RtmpfJKDd9/temp_readme.md
1/1
output file: temp_readme.txt

[1] TRUE
README.md has been generated successfully at  experiments/example/input/00_database_resources/README.md 
README.html has been generated sucessfully at  experiments/example/input/00_database_resources/README.html 
04_make_database_resources_readme.R script completed
