Running 03_plot_taxonomic_tree.R script
Input file:  experiments/example/input/00_database_resources/01_taxonomy.txt 
Output file:  experiments/example/input/00_database_resources/03_taxonomic_tree_of_database.pdf 
Loading taxonomy data from  experiments/example/input/00_database_resources/01_taxonomy.txt 
Rows: 1 Columns: 10
── Column specification ────────────────────────────────────────────────────────────────────────────────────
Delimiter: " "
chr (9): organism_type, domain, kingdom, phylum, class, order, family, genus...
dbl (1): organism_id

ℹ Use `spec()` to retrieve the full column specification for this data.
ℹ Specify the column types or set `show_col_types = FALSE` to quiet this message.
There is only one taxa in the data.Saving the plot to  experiments/example/input/00_database_resources/03_taxonomic_tree_of_database.pdf 
03_plot_taxonomic_tree.R script completed
